1008
Atoms. Timestep: 0
 O 22.6905 2.01197 14.7486
 O 21.8662 23.7632 6.14146
 O 8.53268 9.63821 14.0013
 O 16.0711 14.3769 6.33309
 O 22.1185 6.49551 10.776
 O 22.7493 9.95355 1.92739
 O 20.3989 19.6509 11.3514
 O 10.8881 24.395 19.1422
 O 17.7661 23.464 2.84544
 O 3.96157 10.5952 15.0932
 O 9.54796 3.46419 7.76588
 O 13.592 16.978 23.1994
 O 0.754311 6.92243 20.2069
 O 2.66894 16.4603 22.1128
 O 19.5554 0.233767 6.31069
 O 19.1014 21.7926 12.0058
 O 12.1644 3.34913 7.63966
 O 20.8708 9.32574 3.72162
 O 1.95012 17.1187 1.93312
 O 23.7272 3.61875 10.94
 O 23.3384 18.7452 23.1631
 O 0.236179 1.11712 6.56369
 O 3.32146 22.9453 4.47896
 O 12.2663 16.1214 18.3541
 O 22.8388 5.70497 0.974389
 O 23.928 10.3329 20.1481
 O 8.4172 6.74386 8.67561
 O 13.29 13.9327 18.8465
 O 8.34932 23.1221 18.4972
 O 9.01397 23.2939 0.361106
 O 14.7808 18.8774 9.06251
 O 13.6216 20.8519 13.2604
 O 21.9898 15.9815 10.487
 O 13.0365 11.8423 9.76307
 O 2.02806 11.7021 9.17549
 O 7.38644 2.28932 0.753135
 O 15.2159 11.6665 14.927
 O 22.0076 17.7476 3.35189
 O 11.4679 14.4362 0.891056
 O 8.92594 14.2649 2.98454
 O 8.74181 0.851711 23.6489
 O 18.6827 17.7595 11.9432
 O 21.1585 22.9466 22.6506
 O 18.9488 1.85041 13.3916
 O 21.4739 0.822447 4.26148
 O 8.28285 1.88994 9.6486
 O 23.1366 1.9096 24.2854
 O 9.28426 19.168 3.69488
 O 22.373 1.05946 1.95383
 O 10.6282 22.218 8.78321
 O 23.7477 11.1745 13.7439
 O 16.7001 13.6705 18.443
 O 17.662 3.56831 5.774
 O 14.1961 10.7638 3.3355
 O 12.5593 13.7156 11.6529
 O 21.6098 10.46 12.2914
 O 19.9492 4.08783 4.58121
 O 11.4486 9.71972 10.1947
 O 14.5439 22.8936 14.8611
 O 9.84425 5.91772 23.01
 O 3.8123 7.29462 5.60497
 O 18.8946 11.358 8.86975
 O 22.8425 13.9234 9.24418
 O 16.3507 21.4772 2.1905
 O 15.0667 13.2782 10.746
 O 15.2775 6.36944 1.17283
 O 15.1056 0.316083 19.0248
 O 23.6812 23.9843 11.2119
 O 11.0692 15.108 5.53721
 O 17.3582 11.5608 20.0536
 O 9.90126 4.55073 18.2049
 O 9.45351 18.4487 1.20549
 O 15.1606 21.2922 18.2849
 O 22.0051 15.1445 13.1198
 O 18.2373 19.6229 6.09715
 O 4.47268 12.5421 8.56161
 O 24.6064 2.87163 22.4007
 O 11.1841 20.2698 21.8742
 O 17.5096 9.24337 9.77
 O 16.4837 18.0082 17.5221
 O 11.0356 16.8695 23.5777
 O 8.89681 10.7722 7.58413
 O 20.5458 0.47354 20.6146
 O 12.197 6.00289 13.4598
 O 20.9176 5.22094 21.3687
 O 2.07168 14.5327 20.3917
 O 1.77986 20.363 15.9095
 O 14.3193 7.49585 7.00495
 O 7.41426 7.02454 13.8316
 O 16.7206 23.0078 12.4725
 O 19.6447 20.5873 16.0461
 O 12.9267 22.7364 18.7806
 O 8.01029 22.5232 12.5547
 O 20.6934 5.36734 2.39298
 O 12.111 16.5569 10.3505
 O 9.19718 5.49536 0.916316
 O 5.78857 20.1414 9.92241
 O 7.30396 3.86039 5.28721
 O 16.5869 4.93924 11.2063
 O 1.06886 20.7262 18.2936
 O 6.27519 0.319979 10.2608
 O 9.93998 18.3294 8.7281
 O 4.98087 16.8249 19.7517
 O 12.2374 5.30731 2.41203
 O 19.5455 1.11288 16.5559
 O 7.6714 6.78465 19.4778
 O 24.2883 4.73344 18.9232
 O 24.7002 19.194 0.604588
 O 6.33334 21.4055 22.9666
 O 21.5102 11.6402 9.36803
 O 7.3673 12.2021 2.34144
 O 20.3033 4.88635 9.4704
 O 17.4289 9.38502 18.6956
 O 17.7288 10.6059 15.1546
 O 13.1059 11.286 19.0794
 O 13.2342 14.4455 9.32004
 O 15.3505 3.12254 4.88722
 O 23.9565 19.8613 16.3744
 O 12.722 20.7603 9.63533
 O 6.06675 5.15669 12.4064
 O 16.0608 6.45829 8.91561
 O 1.24114 13.6062 18.1007
 O 8.41252 24.274 14.4962
 O 3.19593 13.5459 10.6229
 O 5.25346 5.27726 4.65037
 O 11.7131 9.84869 3.17643
 O 1.82326 4.29294 23.4966
 O 20.244 15.6585 5.54226
 O 1.2261 24.4075 12.3435
 O 17.57 2.45881 15.7047
 O 12.9819 11.9397 23.7582
 O 7.04682 6.19021 6.42119
 O 4.91001 2.95181 14.1214
 O 10.1998 12.966 6.89485
 O 21.4328 14.6333 20.86
 O 16.0837 2.39197 1.62596
 O 11.788 18.8732 6.90365
 O 2.97371 5.98961 0.609825
 O 9.12248 3.48227 23.9022
 O 24.3901 10.571 4.97646
 O 12.6381 3.38146 13.1957
 O 15.1713 23.3736 3.52282
 O 17.3153 9.91838 7.21411
 O 20.2234 16.9983 1.61894
 O 4.22289 15.8501 11.5251
 O 11.0012 4.3645 4.35016
 O 20.1675 0.547627 11.3602
 O 21.142 5.28945 12.9341
 O 8.65 19.2278 10.7842
 O 23.8757 0.222996 16.2705
 O 1.34642 3.67024 17.4337
 O 22.4874 4.21573 23.1373
 O 11.437 1.83936 4.77704
 O 12.6651 9.22331 20.548
 O 16.1264 10.1007 4.91843
 O 22.2509 8.40844 20.5287
 O 7.19242 17.2088 1.06541
 O 9.35581 7.3688 6.27044
 O 24.1892 22.6897 6.73126
 O 14.9054 16.1736 18.4587
 O 0.885499 4.82611 12.467
 O 3.87386 9.91113 5.31598
 O 1.08389 14.6918 23.0477
 O 10.7484 1.60625 8.9824
 O 18.8221 6.03275 17.6411
 O 17.638 24.7956 23.8684
 O 18.3234 15.2757 7.40103
 O 0.981006 16.3128 13.9541
 O 7.80464 10.5608 23.7462
 O 18.8391 7.58771 22.9387
 O 0.810469 9.47771 8.4887
 O 4.88401 1.59717 1.40203
 O 19.9958 23.4568 4.22169
 O 4.17984 24.707 8.84972
 O 9.39268 20.0934 13.3213
 O 23.7143 13.5898 20.5973
 O 4.6935 13.0444 15.0666
 O 21.428 17.5248 12.3986
 O 3.47024 0.622482 20.0329
 O 0.966834 0.290781 20.6973
 O 23.6189 5.36771 21.1998
 O 1.99704 23.9892 2.38129
 O 7.66244 7.22314 2.32731
 O 21.3788 6.8712 8.14824
 O 0.542057 17.2376 18.8732
 O 8.62959 17.4692 23.5062
 O 24.0084 4.38718 14.5956
 O 3.1302 14.101 13.1997
 O 13.4429 9.46952 23.1173
 O 14.0019 8.37372 2.49189
 O 18.0658 6.92869 10.5976
 O 16.0624 24.2654 16.6211
 O 2.89383 24.3026 22.3629
 O 16.7133 21.8296 6.63863
 O 6.92909 0.200119 2.37099
 O 19.2933 23.2108 16.3692
 O 12.3149 8.06051 15.1997
 O 23.0874 24.7443 19.7877
 O 23.6073 6.37297 13.0748
 O 6.06444 20.6077 7.25432
 O 4.46688 23.4005 11.27
 O 7.8953 13.7695 17.2543
 O 21.5818 18.8019 15.7741
 O 8.12186 2.5174 18.1953
 O 1.5723 8.79598 5.61193
 O 5.21951 0.358658 13.2098
 O 5.66923 15.0816 24.6547
 O 21.0198 10.7743 5.91494
 O 10.7711 18.5205 11.7462
 O 20.706 14.3593 15.4269
 O 23.7292 21.3087 4.58787
 O 22.996 11.473 24.5829
 O 13.6623 5.57825 8.76844
 O 0.16599 20.4753 21.9986
 O 6.50155 2.42069 3.26386
 O 12.5088 21.8192 23.3349
 O 18.8723 3.35005 17.8041
 O 15.696 17.546 4.38679
 O 1.09135 6.22267 14.8181
 O 0.84677 9.16994 3.04229
 O 5.60643 10.5087 22.4605
 O 3.69816 21.0849 18.2442
 O 4.5159 2.14451 23.6652
 O 8.07977 16.7649 4.09982
 O 2.64691 12.0678 4.07662
 O 5.48773 4.17886 7.2417
 O 18.8472 18.6746 20.5198
 O 1.73132 24.2944 15.857
 O 10.562 24.2996 5.65211
 O 5.8023 23.9855 19.3339
 O 3.67914 22.7174 24.6073
 O 15.1015 2.84927 11.2834
 O 8.22254 12.1433 13.0891
 O 17.4986 22.2233 24.0194
 O 13.3588 18.4683 11.801
 O 7.20576 8.06559 24.01
 O 5.92158 17.77 11.2604
 O 23.7941 20.1665 11.238
 O 8.74378 23.0621 7.11563
 O 13.8605 15.7292 20.6487
 O 22.7142 4.72372 8.89229
 O 14.7481 1.55432 24.1483
 O 5.22723 11.6267 17.2775
 O 23.4557 16.4397 8.25498
 O 9.99034 7.43229 14.2295
 O 21.2208 21.8217 0.296389
 O 20.3566 0.357079 8.7415
 O 17.513 21.3276 17.0164
 O 0.49709 24.2669 18.276
 O 12.5235 12.6357 21.2468
 O 7.32184 14.5332 5.01748
 O 18.3173 16.409 21.8906
 O 3.5898 12.8006 18.993
 O 15.7201 6.26949 23.1399
 O 13.2754 12.0097 13.3
 O 9.16108 13.8939 14.9396
 O 24.7266 15.021 16.2042
 O 16.0391 23.7121 0.949236
 O 3.35182 17.6281 24.4415
 O 1.15786 20.7799 6.30235
 O 9.815 7.46996 10.9016
 O 21.5822 4.3281 15.3291
 O 9.44422 18.0458 6.01078
 O 11.6309 1.06762 12.1994
 O 18.7598 10.0001 5.01594
 O 6.4231 16.2619 6.86663
 O 3.48176 23.3052 13.9986
 O 24.6261 16.7034 24.1599
 O 20.9432 19.5394 1.72796
 O 5.54745 1.01447 21.2573
 O 16.5159 16.4382 12.7176
 O 4.81789 17.785 22.3067
 O 17.1816 14.2046 20.892
 O 10.9738 13.4469 23.2953
 O 1.69973 20.4052 10.9886
 O 20.4618 12.7926 7.36995
 O 1.86882 17.2719 4.60874
 O 3.63784 5.22832 8.8322
 O 4.74508 8.34836 21.256
 O 13.5797 14.4902 5.40761
 O 24.0822 11.4938 9.43893
 O 5.57173 14.9494 18.1404
 O 22.1278 15.2655 3.61067
 O 21.8898 21.5765 7.50629
 O 9.54761 7.79302 21.1027
 O 13.4788 9.55798 8.40666
 O 6.1484 3.02489 16.4451
 O 24.6222 0.435972 1.22119
 O 1.28871 4.45303 20.9328
 O 2.53013 20.2503 13.527
 O 0.770413 22.8121 4.33906
 O 1.75676 12.8639 24.8067
 O 8.22624 23.1535 22.555
 O 6.86731 10.088 12.2115
 O 2.53395 5.2031 4.73763
 O 5.02526 11.4562 3.33485
 O 3.52157 4.15487 18.8986
 O 24.6595 21.4394 2.16877
 O 23.9478 16.7648 12.052
 O 5.05824 8.84492 10.8485
 O 2.33134 2.20842 21.8154
 O 17.3676 18.7663 8.26148
 O 4.34561 20.8064 15.7562
 O 7.67207 21.1063 14.7727
 O 19.6689 5.67769 6.58717
 O 23.7551 5.86955 3.27266
 O 0.315513 24.7486 9.09535
 O 13.1075 21.7204 3.64266
 O 2.44277 14.7382 4.95772
 O 7.0395 21.8418 0.850297
 O 16.1247 18.7813 2.22907
 O 23.274 19.8488 13.8963
 O 1.41482 9.37487 20.7321
 O 3.83186 5.87325 20.8902
 O 3.97871 19.36 11.7257
 O 2.60391 18.6279 18.2788
 O 2.51839 0.940696 0.458548
 O 6.43183 13.6587 7.21426
 O 19.6896 21.1535 21.0821
 O 7.7509 16.0072 15.7585
 O 2.43532 20.1902 20.4679
 O 19.5993 20.1225 8.34408
 O 15.7761 15.6328 22.4793
 O 0.971718 2.38352 11.7953
 O 12.4322 0.868356 7.08106
 O 8.01488 24.5884 4.93937
 O 18.9505 18.0095 16.2544
 O 7.84902 15.0201 19.5305
 O 23.6761 8.42976 18.2614
 O 21.5696 22.7597 20.1303
 O 17.2873 13.1152 16.0152
 O 3.91572 23.1879 16.6058
 O 2.70212 15.2119 0.34637
 O 1.43679 13.8784 2.60655
 O 15.8606 8.81956 0.732931
 O 16.4594 11.4918 9.23422
 O 14.0409 14.5016 1.50946
 O 21.5974 7.95546 12.7498
 O 5.87795 23.3612 4.06577
 O 12.077 7.26296 9.97472
 O 14.1111 20.2465 1.62816
 O 19.9068 1.37134 23.2292
 O 23.7784 17.453 15.2663
 O 22.1203 6.31748 5.60172
 O 23.1234 16.6336 5.64767
 O 16.4018 20.0713 24.7547
 O 12.7496 9.0882 17.7475
 O 20.9268 15.6763 8.09552
 O 4.83403 17.8707 8.33212
 O 1.04946 3.06485 5.15542
 O 22.1085 12.3641 22.3015
 O 13.8939 0.632802 15.7546
 O 4.05428 0.862028 15.3796
 O 13.6178 5.09908 4.57868
 O 19.1598 13.8757 17.4913
 O 15.4975 18.8756 13.0958
 O 10.3004 2.24384 19.4923
 O 5.01119 17.2278 16.9442
 O 11.6815 8.41907 12.452
 O 5.92253 4.86257 19.6508
 O 3.74551 13.8486 23.2793
 O 24.7857 22.149 9.862
 O 7.07326 10.1506 9.55216
 O 11.4567 4.45006 24.7741
 O 10.5024 21.0348 11.1045
 O 20.2153 10.2855 1.55208
 O 6.7022 5.63893 0.402327
 O 19.1351 4.15507 14.3143
 O 11.5585 19.8077 2.53263
 O 16.987 7.45956 21.1415
 O 5.119 7.63004 0.890724
 O 20.8844 21.7225 10.012
 O 6.80506 15.3833 11.891
 O 13.5456 3.36126 16.2102
 O 20.4102 8.23281 6.06111
 O 6.89435 22.1236 20.3633
 O 15.5042 7.59649 14.2854
 O 2.96007 8.05883 14.996
 O 11.511 10.9339 7.77223
 O 1.36559 23.4473 24.4487
 O 14.8915 9.27242 19.0971
 O 12.8128 16.9869 5.32447
 O 6.65383 15.1996 2.49456
 O 12.4088 23.4121 21.2938
 O 22.9039 12.5306 6.13284
 O 14.8621 21.4157 8.45459
 O 5.9473 4.64463 9.78745
 O 16.0427 16.4842 7.9701
 O 11.9143 16.6767 13.0529
 O 6.39885 11.1567 14.7244
 O 19.5933 21.6611 2.26977
 O 4.83658 6.77438 23.2824
 O 0.206623 16.3637 21.269
 O 14.7756 18.2863 19.7574
 O 21.4043 7.85077 1.69055
 O 2.19576 20.8673 1.12312
 O 20.3085 11.1521 23.8823
 O 19.7916 13.4825 10.1152
 O 15.8994 16.0399 2.25618
 O 3.73637 18.4894 15.001
 O 6.32694 12.7503 19.2417
 O 14.9834 12.6874 20.2134
 O 24.658 11.9004 1.89197
 O 18.765 9.43599 20.9032
 O 15.3969 23.8578 7.72047
 O 9.3571 15.1142 24.4173
 O 18.9984 8.41513 16.2562
 O 19.8996 19.0503 13.9043
 O 13.1264 20.2782 19.4969
 O 9.13649 9.21265 3.623
 O 1.33068 17.1843 16.4122
 O 9.39102 20.9168 1.57531
 O 22.2659 20.6618 21.5375
 O 18.9942 12.8374 0.703008
 O 0.31271 13.1352 4.87249
 O 22.9329 12.4827 11.4824
 O 13.1577 10.1869 0.917314
 O 11.3699 2.8935 2.29622
 O 14.5705 7.48041 11.7891
 O 6.88105 5.84247 21.8022
 O 20.0841 6.36653 15.2348
 O 8.4542 16.7115 13.3775
 O 6.81859 2.83983 11.4264
 O 3.70842 6.79723 2.97415
 O 7.24804 9.17277 20.7405
 O 3.03514 3.39853 0.846852
 O 16.6867 17.5 15.0322
 O 6.38194 20.3007 12.4929
 O 23.9645 7.92358 4.65544
 O 15.9782 7.98187 16.9633
 O 10.1411 20.5042 15.7711
 O 15.9907 20.0752 4.8506
 O 7.21944 16.975 21.0458
 O 4.22031 21.8567 2.37646
 O 9.85099 4.51653 15.5342
 O 16.7023 17.3931 10.3225
 O 17.6468 12.848 11.184
 O 9.60015 20.3883 7.12621
 O 2.80736 1.15616 10.6303
 O 2.42892 18.862 7.54255
 O 5.98701 17.3515 14.4426
 O 24.718 22.3807 16.5645
 O 17.416 20.657 19.6188
 O 10.6877 22.4966 17.3379
 O 15.9983 10.7387 17.0838
 O 17.1914 16.9703 19.7255
 O 16.7211 4.38661 18.6078
 O 17.7866 24.551 8.18413
 O 5.96648 22.0236 17.7394
 O 9.12801 2.70941 3.62024
 O 21.5552 12.6535 13.6815
 O 17.9788 10.4694 0.448936
 O 7.32231 8.68383 7.44205
 O 2.93855 1.55296 13.1792
 O 24.476 16.7923 3.39867
 O 15.7092 4.096 24.5347
 O 3.05031 16.1294 18.1111
 O 24.054 1.1788 4.14893
 O 9.34162 15.5147 21.8259
 O 5.22108 21.0509 4.83457
 O 17.4902 15.729 16.8318
 O 13.3926 14.4242 22.7971
 O 10.7778 17.9379 17.7291
 O 12.775 1.20253 19.8476
 O 8.32472 18.5265 15.1823
 O 8.19288 0.455313 11.9726
 O 14.7373 5.83908 15.9927
 O 2.49729 7.57512 22.3355
 O 13.6284 3.30369 1.07622
 O 10.0771 15.4921 16.8638
 O 5.80068 11.2079 0.589803
 O 12.55 16.7925 0.88752
 O 18.2012 21.5214 4.51346
 O 14.2971 22.2917 5.88687
 O 12.7868 14.4811 14.2323
 O 13.7089 9.75863 5.72208
 O 20.215 6.12258 24.7454
 O 17.0645 9.4294 22.9524
 O 18.4052 15.4395 0.949536
 O 13.0675 24.4007 23.4877
 O 14.3805 16.6849 14.2473
 O 3.23147 8.79613 7.67107
 O 6.74819 9.70968 2.6903
 O 1.96849 0.574164 4.63912
 O 4.61568 16.623 1.65339
 O 5.97394 15.8116 9.49235
 O 19.6172 14.034 12.764
 O 17.4464 0.653139 11.764
 O 7.02527 0.73419 16.6978
 O 24.2938 22.1931 12.9307
 O 10.048 2.96716 13.3193
 O 17.339 7.88077 5.42384
 O 3.78374 3.96572 16.3578
 O 11.8089 7.51676 22.3866
 O 22.7119 16.5107 19.7255
 O 19.0714 20.3983 24.696
 O 11.5521 6.85993 4.59576
 O 21.9457 2.14155 9.72485
 O 4.55439 12.2897 5.91351
 O 15.7512 0.298949 13.8119
 O 14.3379 7.47724 21.5863
 O 10.2572 23.8194 12.7151
 O 11.1322 15.1396 8.22287
 O 15.3197 10.9226 24.2426
 O 23.8451 18.6996 20.4819
 O 4.81368 20.4967 0.349629
 O 16.5632 7.72166 3.00884
 O 11.7998 1.63346 14.8137
 O 8.75781 15.1137 7.07861
 O 17.4377 1.13221 18.0797
 O 12.7651 20.9565 16.9501
 O 21.5329 24.4626 15.4977
 O 11.0413 5.5985 6.8662
 O 8.90206 8.84463 18.6652
 O 18.5282 1.51944 1.09083
 O 14.5394 0.900761 21.6233
 O 4.04309 15.6955 15.1064
 O 21.331 15.196 17.9807
 O 21.3775 12.6987 17.4287
 O 0.263731 9.69655 0.532363
 O 2.5037 8.82137 10.3122
 O 8.69451 9.28052 1.17129
 O 8.30383 22.7468 3.00463
 O 4.76749 3.48522 21.3719
 O 18.4267 5.97195 3.63522
 O 8.37633 4.22177 20.2284
 O 22.2409 9.67092 22.7788
 O 15.5544 13.9137 3.72372
 O 5.74779 22.4909 13.4767
 O 21.125 24.2831 18.0816
 O 8.72407 2.09572 15.2165
 O 9.59871 17.0362 19.7465
 O 24.6978 2.09516 19.0597
 O 20.0202 10.837 16.4017
 O 3.25846 16.686 6.63441
 O 24.2307 2.45946 8.65802
 O 7.85019 4.38315 13.974
 O 24.1033 9.75051 15.9742
 O 8.16319 5.32071 10.9104
 O 7.05203 18.9889 5.24979
 O 21.8517 10.2504 18.4469
 O 2.61336 8.47055 1.26745
 O 23.2393 23.6547 3.28578
 O 19.8879 9.58241 14.0247
 O 8.04538 21.3225 8.88371
 O 22.249 6.95051 22.727
 O 17.758 4.59302 9.04882
 O 7.24445 19.4838 24.5953
 O 17.3982 1.76109 3.7937
 O 1.66616 15.5583 11.5433
 O 0.235147 7.25197 1.46017
 O 14.9223 2.82328 19.7942
 O 7.46448 17.7795 8.70882
 O 10.8406 12.8535 13.4118
 O 22.5931 17.7919 0.844856
 O 19.9048 16.4254 19.7398
 O 0.195996 12.3104 15.8602
 O 10.5392 9.28954 16.561
 O 8.15266 8.22905 16.0489
 O 12.0301 18.1919 20.2144
 O 15.1394 4.97316 6.78617
 O 6.33885 11.1223 7.33972
 O 22.0575 2.05331 21.9835
 O 2.32626 13.7811 15.7869
 O 9.51171 24.7692 16.8398
 O 5.74697 22.589 9.11153
 O 8.89156 0.93883 7.15878
 O 15.7018 1.37515 9.01518
 O 18.7684 4.98698 22.7832
 O 22.5244 24.1302 24.5885
 O 19.3425 2.49699 9.85397
 O 19.5885 14.8705 3.22201
 O 7.59544 4.62472 2.79843
 O 18.2073 15.3896 11.0129
 O 12.4453 15.4918 3.18036
 O 13.7682 19.297 3.99013
 O 9.35548 12.7778 0.792625
 O 10.43 10.6938 5.42985
 O 12.0057 5.30108 16.7215
 O 9.90035 11.7182 3.21916
 O 4.00129 11.0662 10.7129
 O 0.697591 15.873 6.58429
 O 6.87703 2.45136 22.8339
 O 4.98781 10.5253 19.8043
 O 12.1096 1.62647 17.4562
 O 17.9149 21.8349 14.4761
 O 24.4032 8.135 22.1856
 O 11.0927 4.92501 9.30053
 O 11.8637 23.2417 10.7144
 O 1.65726 18.1269 12.0917
 O 16.1362 5.5294 4.41533
 O 5.47145 15.2505 21.9386
 O 8.6819 20.7877 21.6249
 O 19.3076 8.91038 11.6493
 O 13.3031 1.76705 9.52687
 O 12.8739 5.02507 11.1587
 O 15.314 5.3927 20.5918
 O 2.55606 5.95706 17.0178
 O 10.6661 23.6946 23.0693
 O 0.507768 11.8575 7.13224
 O 14.8678 20.5208 10.9786
 O 9.9546 19.5332 19.714
 O 12.9999 16.7938 7.95294
 O 19.5376 11.055 18.9067
 O 4.37361 2.70325 9.11948
 O 1.10414 8.02819 16.8032
 O 9.92966 6.80142 17.2009
 O 1.46673 11.9186 20.1663
 O 16.6257 13.7001 1.29422
 O 20.854 13.1747 4.78962
 O 19.9945 24.1182 0.217316
 O 14.9245 0.168384 11.2156
 O 18.7787 23.9761 13.399
 O 19.8224 3.03428 21.2871
 O 3.15642 9.45409 12.759
 O 16.9178 23.1673 18.7967
 O 19.7007 22.7308 7.83354
 O 8.81387 16.6087 10.6488
 O 1.69912 4.70646 7.23129
 O 19.6478 3.36812 7.41922
 O 24.6456 18.4276 6.73915
 O 24.5988 5.43704 5.61183
 O 18.7396 5.00088 20.0076
 O 22.7577 23.5983 8.70965
 O 12.9049 23.422 12.9457
 O 19.5048 17.6062 7.27294
 O 23.1361 14.638 22.8764
 O 13.6824 19.6926 21.9054
 O 16.8616 3.33921 13.3318
 O 0.380073 19.8305 8.8493
 O 14.363 9.65132 13.3728
 O 5.58347 1.65994 18.6831
 O 13.0193 24.2869 4.73002
 O 15.4554 23.7648 23.1837
 O 23.5392 24.3669 13.7932
 O 9.24156 14.4985 12.3022
 O 14.1187 4.97059 18.2714
 O 12.1911 16.6417 15.6983
 O 7.39794 7.84277 10.8061
 O 24.4609 14.3748 0.563751
 O 0.725418 4.7969 1.15733
 O 16.6908 14.0932 8.91963
 O 12.7846 10.502 15.4796
 O 17.6962 14.1682 23.4711
 O 1.3201 4.46908 9.96055
 O 1.47507 10.2558 14.6816
 O 17.6429 20.2105 22.2768
 O 9.63592 8.53993 23.6053
 O 18.1214 17.1143 3.04425
 O 21.8074 21.4204 12.411
 O 17.3794 6.34044 15.5454
 O 10.6303 22.1183 20.0969
 O 23.4386 3.21877 16.9479
 O 14.6763 4.83515 12.9919
 O 18.4163 3.64084 2.51711
 O 1.01738 19.1974 2.95497
 O 16.7655 8.69198 12.2485
 O 0.724523 10.2941 18.1465
 O 1.66624 6.89862 8.76715
 O 6.18116 12.8721 23.2035
 O 14.7005 12.2015 5.53433
 O 16.4631 1.25234 6.36883
 O 17.6279 6.0215 24.7789
 O 14.4096 18.6152 6.37469
 O 5.72607 5.26233 15.073
 O 4.52186 18.8936 6.00722
 O 12.2897 19.0807 24.0675
 O 2.10001 1.70803 8.2314
 O 2.36321 19.0998 22.625
 O 2.40996 21.698 22.6644
 O 11.8584 8.1165 6.82989
 O 11.985 22.166 14.9382
 Si  14.6556 10.7502 4.89688
 Si  2.37767 14.0912 23.9901
 Si  0.313679 16.4316 15.4628
 Si  14.4701 0.356597 23.1138
 Si  3.71075 2.04797 0.321323
 Si  6.92913 14.1097 18.5725
 Si  10.115 20.7103 20.8106
 Si  18.326 4.74451 18.4754
 Si  17.1324 6.78731 4.19599
 Si  21.8938 11.1323 23.4169
 Si  20.2435 20.7933 1.04792
 Si  22.69 22.9045 7.28464
 Si  2.0993 16.097 5.73929
 Si  3.11528 19.9594 15.0518
 Si  15.5345 14.4422 2.188
 Si  12.348 13.3151 13.1952
 Si  12.4896 15.4758 4.7885
 Si  6.2259 4.88176 5.89094
 Si  4.67999 22.278 3.8735
 Si  11.2102 8.2747 10.9099
 Si  7.44735 10.1547 8.03229
 Si  17.3027 20.7429 5.58146
 Si  1.29623 4.59603 5.69151
 Si  22.9647 16.6212 3.98437
 Si  19.9639 19.0973 15.5551
 Si  19.199 3.82198 8.94364
 Si  15.8066 6.92874 15.6665
 Si  21.2912 12.299 6.09002
 Si  0.826151 13.6262 16.5265
 Si  12.2473 1.86032 8.34424
 Si  3.57721 14.1497 14.8171
 Si  1.16798 7.97699 21.4574
 Si  4.88454 4.22535 8.72197
 Si  0.300389 20.6066 10.2287
 Si  6.69032 5.54151 13.8099
 Si  18.9163 22.5601 3.4846
 Si  0.674885 11.0817 8.51466
 Si  23.1726 0.726551 0.624018
 Si  1.96936 1.1148 11.9666
 Si  10.2952 14.616 6.95608
 Si  0.360044 9.13707 4.59717
 Si  3.75822 18.0858 7.16466
 Si  20.6853 14.0586 17.0499
 Si  14.3622 1.3024 20.0941
 Si  10.9051 4.35694 7.8255
 Si  3.43749 12.2067 9.76545
 Si  15.7543 17.3787 13.7903
 Si  15.0019 2.78691 0.465755
 Si  11.5004 2.20537 13.2855
 Si  7.6501 3.37199 3.82945
 Si  8.32726 8.1695 20.0027
 Si  1.82698 17.2078 17.9229
 Si  8.34043 9.12993 24.2648
 Si  8.01851 7.20457 7.15156
 Si  22.9913 3.46139 15.4174
 Si  16.7653 15.1183 7.63308
 Si  8.72642 14.8105 16.2978
 Si  18.0792 22.5309 13.0451
 Si  17.9136 8.51192 21.9028
 Si  22.529 11.7231 12.7844
 Si  6.8275 4.44213 11.0984
 Si  9.33064 21.7774 7.96926
 Si  7.65282 17.197 14.6666
 Si  20.3888 24.4325 16.5856
 Si  11.5898 7.51745 13.8129
 Si  16.4629 12.9279 10.0245
 Si  2.88736 9.56815 14.3354
 Si  16.7215 2.2841 5.22108
 Si  23.1474 3.27516 9.52301
 Si  5.14604 11.5685 15.6325
 Si  4.68199 17.1813 15.3435
 Si  0.56048 1.3503 8.14281
 Si  15.2399 22.3777 7.19391
 Si  17.4881 16.741 11.4911
 Si  17.2974 15.1538 22.193
 Si  3.04477 14.7278 11.7481
 Si  18.7991 6.76629 16.1922
 Si  16.3471 0.458645 7.82774
 Si  21.3171 6.25838 1.23537
 Si  22.5463 13.7584 21.6122
 Si  13.5728 15.4973 19.0527
 Si  13.8595 22.9787 4.45414
 Si  18.8161 13.9197 11.3781
 Si  3.63616 7.22373 1.3953
 Si  15.8326 3.9837 12.2302
 Si  20.5052 21.5002 8.45462
 Si  16.5851 11.5958 15.7967
 Si  22.1444 6.4781 12.3533
 Si  9.74026 19.774 11.7854
 Si  21.1451 21.8931 21.3363
 Si  16.1245 24.5428 12.2426
 Si  12.1395 5.47113 4.03104
 Si  16.1338 17.87 8.83827
 Si  18.9544 6.27159 23.8238
 Si  17.1471 5.78233 9.92472
 Si  10.7501 2.90164 3.77827
 Si  19.0916 16.0959 2.25151
 Si  24.079 23.5936 9.6797
 Si  21.2891 9.31458 2.2031
 Si  2.06958 23.8084 3.99022
 Si  14.7427 1.57843 10.3483
 Si  8.40845 18.2359 4.79283
 Si  16.5844 13.0094 19.9411
 Si  12.011 17.5414 11.6708
 Si  15.6116 6.6269 21.5165
 Si  2.08222 13.2563 19.422
 Si  11.3188 16.5856 17.0987
 Si  20.4965 1.67059 21.721
 Si  14.9668 18.8449 4.9347
 Si  12.4705 20.2507 22.8749
 Si  0.686938 13.2544 1.28342
 Si  8.04352 2.31136 23.8648
 Si  22.7776 8.32935 22.0593
 Si  13.5644 4.8657 16.7313
 Si  9.56798 16.2308 23.303
 Si  9.31676 13.3308 13.4326
 Si  22.824 12.4047 9.86833
 Si  13.545 21.3174 18.3155
 Si  6.00891 16.0404 1.28048
 Si  9.11839 23.9814 23.5991
 Si  20.2605 9.59099 5.16853
 Si  14.3692 19.7105 12.332
 Si  18.5872 21.7935 15.9289
 Si  23.0606 2.77026 22.9699
 Si  17.5558 10.4347 8.74717
 Si  18.0936 2.89658 14.2149
 Si  6.98706 21.589 13.3308
 Si  13.9073 10.8929 14.2941
 Si  1.15245 17.6128 3.24408
 Si  6.26 20.8318 24.5258
 Si  15.0177 4.61456 5.22845
 Si  13.1835 9.72202 2.54123
 Si  3.80625 6.17424 4.44495
 Si  4.45576 4.54723 20.1916
 Si  10.2531 13.8046 24.7011
 Si  2.76597 4.42827 17.5444
 Si  19.4253 4.73783 3.16301
 Si  9.00053 24.3536 6.18626
 Si  8.3998 15.8181 12.0087
 Si  1.98214 7.03237 15.9268
 Si  24.3497 15.1608 23.8393
 Si  7.20952 14.8821 6.57475
 Si  22.3106 5.44801 22.1188
 Si  13.0422 20.2462 2.91333
 Si  15.8621 17.4164 18.8373
 Si  17.8429 8.4224 11.0845
 Si  2.41573 0.635332 21.2658
 Si  12.154 23.2832 22.8554
 Si  16.6642 23.6162 24.1551
 Si  22.3199 15.5116 9.0295
 Si  20.6535 24.4995 5.23198
 Si  19.2038 4.23426 6.04851
 Si  5.70864 16.1856 11.0105
 Si  23.1315 18.9007 15.3161
 Si  19.3371 24.2924 7.7502
 Si  13.7627 10.6424 24.2016
 Si  4.57438 21.6817 17.1024
 Si  2.65869 23.0996 23.4615
 Si  0.838916 20.1696 1.67422
 Si  4.69632 23.5318 12.9387
 Si  5.77868 19.8823 5.78713
 Si  10.2111 7.40237 22.5343
 Si  6.42993 21.1311 8.81138
 Si  20.4786 5.01781 14.4375
 Si  6.59871 9.22644 10.8228
 Si  13.3004 9.70521 19.1026
 Si  24.5909 3.37969 18.1078
 Si  1.70507 13.447 4.19146
 Si  20.1748 12.3661 8.90927
 Si  10.3034 11.3279 6.93353
 Si  16.0961 5.6647 24.6411
 Si  16.7759 21.5839 18.4403
 Si  0.579061 3.85317 11.2242
 Si  18.6462 17.1261 20.4681
 Si  11.4746 1.30527 18.9948
 Si  10.9195 7.0086 6.11641
 Si  5.12127 3.78331 15.4825
 Si  11.6734 24.1449 12.0067
 Si  17.456 17.2804 16.4294
 Si  1.38736 3.46436 22.189
 Si  12.3775 17.4762 24.1491
 Si  10.665 18.1527 19.3504
 Si  1.40773 24.5154 0.962103
 Si  12.638 15.3196 1.58049
 Si  24.6852 10.9286 14.9965
 Si  12.8699 1.84598 16.0204
 Si  15.2614 8.3844 12.9321
 Si  24.3143 11.9643 5.73735
 Si  5.5571 19.3726 11.3505
 Si  14.8468 6.13646 7.83624
 Si  3.31912 24.0892 15.4498
 Si  2.48658 19.5546 12.0945
 Si  3.15787 16.6288 0.951863
 Si  9.24401 2.00081 8.41359
 Si  12.3903 10.5401 9.08527
 Si  11.7857 23.2256 19.856
 Si  8.03895 8.77214 2.57877
 Si  6.05423 6.95957 24.3986
 Si  5.65109 9.73495 21.0746
 Si  17.6318 2.27792 2.23878
 Si  9.32128 8.36352 17.1753
 Si  12.7732 16.1172 14.2949
 Si  13.0365 17.8457 6.68727
 Si  15.2592 4.38949 19.3246
 Si  21.2297 23.2829 24.2294
 Si  16.2439 23.054 2.40595
 Si  8.70391 17.9999 9.73455
 Si  15.3823 7.83446 1.90359
 Si  3.99064 7.1037 21.9599
 Si  20.9261 6.73477 6.57728
 Si  20.8855 14.1176 13.7916
 Si  8.42834 0.592646 15.7613
 Si  19.0286 0.707568 24.4739
 Si  12.0794 9.26907 16.2882
 Si  16.5049 17.3918 2.94283
 Si  20.0937 18.472 12.413
 Si  13.5307 13.2459 10.4238
 Si  22.7719 0.555847 3.38929
 Si  0.319643 24.0019 16.7397
 Si  22.8304 9.37007 19.3254
 Si  13.4408 19.0277 20.4229
 Si  3.36973 1.38841 9.15105
 Si  18.3738 10.3624 19.6963
 Si  15.1347 24.392 15.2712
 Si  16.0297 9.32273 17.946
 Si  4.0841 11.4586 4.62434
 Si  13.0561 8.41982 21.9415
 Si  8.91169 12.7198 2.3429
 Si  24.7715 9.05353 17.2794
 Si  0.762252 10.5616 19.8502
 Si  8.87973 20.0597 14.8598
 Si  3.66507 9.53462 11.207
 Si  9.06053 3.47883 14.4943
 Si  23.8183 10.7058 1.06311
 Si  11.4779 21.8162 10.0978
 Si  19.3851 11.244 0.522073
 Si  21.6479 5.84749 9.38646
 Si  21.4264 18.0275 1.89655
 Si  18.9372 0.609893 12.4135
 Si  19.4556 4.58704 21.3945
 Si  6.35888 11.316 23.6716
 Si  0.826737 16.6945 12.4038
 Si  16.6377 9.92911 24.4202
 Si  5.12157 23.889 9.84488
 Si  17.9288 14.0095 0.374384
 Si  18.767 19.065 7.49032
 Si  4.96388 11.922 18.8372
 Si  20.7239 11.225 17.7806
 Si  4.71625 16.3143 18.2059
 Si  24.2573 5.7915 1.69755
 Si  16.361 24.559 18.1662
 Si  21.3274 15.7122 19.5103
 Si  5.5742 16.7761 21.2673
 Si  10.2608 18.8852 7.20871
 Si  24.8041 5.46269 13.7583
 Si  6.69108 2.01975 17.5811
 Si  8.52411 22.2357 1.50281
 Si  17.3935 9.47557 5.6608
 Si  7.36291 23.9297 3.62794
 Si  8.57094 8.03725 14.4662
 Si  5.32857 14.2238 23.2546
 Si  14.2703 20.3215 9.50321
 Si  10.2751 10.3033 3.90552
 Si  24.1808 17.1899 20.0653
 Si  0.444458 20.8411 16.7822
 Si  13.3141 22.3185 13.9696
 Si  3.68997 21.428 0.936909
 Si  1.50003 15.4708 21.5693
 Si  19.1897 9.81234 15.445
 Si  22.4104 16.3319 12.0533
 Si  20.5803 1.29244 9.96546
 Si  8.45886 6.77231 10.3327
 Si  8.53525 16.0659 20.498
 Si  6.45543 1.63061 1.91797
 Si  0.177259 21.8418 5.63709
 Si  20.7407 14.7013 4.27873
 Si  20.5064 21.2341 11.4854
 Si  13.3543 8.8029 7.00343
 Si  5.38483 12.4123 7.27263
 Si  11.9613 0.515951 5.48981
 Si  12.2463 3.97789 1.43839
 Si  11.3967 21.5051 16.204
 Si  6.79749 22.8055 18.9209
 Si  5.0569 0.605579 19.766
 Si  15.7386 20.1088 1.44325
 Si  0.188221 5.40313 20.2309
 Si  7.47216 10.8009 13.5658
 Si  22.8982 0.44441 14.9697
 Si  18.3385 2.02279 17.0324
 Si  9.79713 23.6718 17.9777
 Si  7.48208 21.8605 21.9024
 Si  18.3921 20.1796 20.8609
 Si  7.80901 15.2536 3.5952
 Si  7.7642 5.707 1.65179
 Si  23.5478 6.31392 4.79304
 Si  24.146 22.3392 3.39796
 Si  3.17468 8.70734 6.03039
 Si  12.414 15.755 8.99866
 Si  1.73402 20.4429 21.9627
 Si  1.01508 8.67525 1.45626
 Si  23.3292 20.8658 12.6285
 Si  17.6959 20.6517 23.8949
 Si  8.69929 23.9462 12.9107
 Si  24.1501 16.8657 6.83029
 Si  9.94391 4.84656 24.253
 Si  24.5953 0.493058 19.5244
 Si  7.32722 5.44574 20.3563
 Si  23.8412 18.0359 24.5612
 Si  2.46964 20.1752 18.879
 Si  23.5149 19.6618 21.8148
 Si  13.0471 4.85048 12.709
 Si  15.0591 13.7951 5.25107
 Si  20.6175 9.23627 12.5503
 Si  9.21086 3.38881 19.0802
 Si  14.1762 15.7471 22.2107
 Si  17.6048 14.1916 17.163
 Si  0.958964 19.5349 7.39526
 Si  7.33844 1.41673 10.8907
 Si  21.5757 24.2735 19.6808
 Si  12.4477 5.7277 9.79574
 Si  13.4073 12.6307 19.8531
 Si  19.7512 16.0175 7.04787
 Si  12.4833 13.0745 22.8089
 Si  24.4041 23.7413 12.5535
 Si  2.04843 8.45079 8.77131
 Si  3.3359 17.822 22.8368
 Si  2.05879 4.64999 0.351559
 Si  4.33899 1.48005 13.9679
 Si  6.11309 11.1314 2.17664
 Si  10.3842 5.32504 16.8914
 Si  8.23582 18.1548 0.238403
 Si  10.0048 19.5562 2.30416
 Si  6.14165 16.9486 8.29113
 Si  5.33331 2.25567 22.2888
 Si  0.659244 1.51854 5.06864
 Si  2.03583 5.32326 8.73111
